m>s?<%[LR_)|Y="8JsCt:2 x2Lآ\R@ThorS4ݸ}HCSB;1dyћdz`8:dGѨƯ[pi=~]QO(h99<p+̦l07ϫirQJOMSOei8AEŶ%4julɠhRM02ڊ'	FU(/kĉ$=	7Trs<6m[:T,V>ь!}LccX5O&GbD0&SAe)#+ky%|!?>#
.|R1{ZTI/{chOhb"h[(rJ.r!6QkdɤS:E^K_m^܃MΫ-8D"-f=0"̫
~I]=F=PFTP>k&9i1
!MT3D`dS.t8AV5hߍ+G\cɜ57#]fSR 0Ξ#tBJxMב㣶32I$F~$ђko{L\G`\_NЌtc&l|0uZ^iEa#Ԣf*A6
y_kD`#FbzC<g֟g4n>qu~5Ӡ>$ǅ3#aZ3c2bM'(ޯ(Us77(ev`ӺIȚ=wҷub9ρ%\"ic3L[91X1:,b,wwE]g	΄B]zQsa=WsF?U}r0!!N!EQ$kzVrm+X(dgM(f+z(0^Z1p+2+jm-ʣSoKPU[
_FOHvИeU8%!ZTCA(zfҫ;A)Y՘yvlf^wC6/ن1N87a1p:Lt;L\n;@}|3DIǞm7(V:L\c0^NVifjOA'Sv3UDԚyKD~kEv#٪"p{ QӌkW9UmugA0V=>=8ZWF'fZɔlWv5#ȉSf ɶ6opǎDģ<Z	@<oM-2=H]j߰q9m`I|7/`eb3y00Idw{aIfdTpp޲ƣ?Gܩ)a# Rk=e!SWN@-cMeOٌߣɫ`U)l"[xzDt1IS֡j`?U/leB/ֲ$dFKilG@<hj7-v΀AYzcDh&`ےOЅ60p7K%5%pE OVz<`AMkwZ.!6us.忭.SDP
6$iw8ePy+Kj6抒#|Lۀ'Q-C4Jny$p=9i=g?Ybv}҅ 61q2Ȯ&^%SpBawDNnVrE_zfϒʗB1mm+нB
/ؿe/Ez\F޹^	Z2
~cML [7߹Gf"o-sn51Kg4pc՘c9wKL5Iڼ<5&YihMJ(`g+=Iǎ-*?ܡٶE^t%KJs*?	!m#	=Q0M1^7";ήi&=p'xBhlDY%-APfan}O4RLB;sO"HM<^r³_yL;佈GHU|WOW3A|CQh}g9j/-¦ImX0PJ]ykl(^U;ބ݌kTr:pH#{'%N*E8{yTt*{4_J ׏x(qC=dTsg"iOD4q5Ȧ
	N^tAO7Lӆ,,=lyn|-4,+ɑsikp%
IXxUEO^j^?p[tEZ/DF7ѩ"3nz[n?3?>*0䐸z"ÿMe$JDf㭿)ɗxk[~,k6SsQgU2	OCq1?0!%h iNb9ˡ|V`(Ɖ弑1­J50pGcM2!x$oƒ2Y8-Ex.zgmGN%5@F_$J7ޏiazv={C p4n\l&An|'Rks2Б	IŬUx8Y%oPewmhp wr1.P*;Ug/>82_ܻk ̣̇f4QSIX擲b1ZFf(FHooz;eF<ʺ@Kz7rrZlALʢ.N+Ⱦ'f{lf㫼/o0AЇ_*jkCehsڧugZ_IHf(~L]$<{&`;IL_WDV|}5boCʲ!o&bYGm&-sԾߙd,dr6!!z\reP	EN3&W0Eaɏ_l+8ѯs>T#ۘ_'*B>0<ݝQˉ7i[Tn

K:ᤫ!$~P{m]6\